<?xml version='1.0' encoding='utf-8'?>
<net xmlns:xsi="http://www.w3.org/2001/XMLSchema-instance" version="1.20" junctionCornerDetail="5" limitTurnSpeed="5.50" avoidOverlap="0" xsi:noNamespaceSchemaLocation="http://sumo.dlr.de/xsd/net_file.xsd">

    <location netOffset="-683621.24,-1191613.65" convBoundary="-133.54,-12.83,2507.29,2089.76" origBoundary="106.679388,10.775042,106.702376,10.794098" projParameter="+proj=utm +zone=48 +ellps=WGS84 +datum=WGS84 +units=m +no_defs" />

    <type id="highway.footway" priority="1" numLanes="1" speed="2.78" allow="pedestrian" oneway="1" width="2.00" />
    <type id="highway.primary" priority="12" numLanes="2" speed="27.78" disallow="tram rail_urban rail rail_electric rail_fast ship container cable_car subway aircraft wheelchair scooter drone" oneway="0" />
    <type id="highway.primary_link" priority="7" numLanes="1" speed="22.22" disallow="tram rail_urban rail rail_electric rail_fast ship container cable_car subway aircraft wheelchair scooter drone" oneway="0" />
    <type id="highway.residential" priority="3" numLanes="1" speed="13.89" disallow="tram rail_urban rail rail_electric rail_fast ship container cable_car subway aircraft wheelchair scooter drone" oneway="0" />
    <type id="highway.secondary" priority="11" numLanes="1" speed="27.78" disallow="tram rail_urban rail rail_electric rail_fast ship container cable_car subway aircraft wheelchair scooter drone" oneway="0" />
    <type id="highway.tertiary" priority="10" numLanes="1" speed="22.22" disallow="tram rail_urban rail rail_electric rail_fast ship container cable_car subway aircraft wheelchair scooter drone" oneway="0" />
    <type id="highway.tertiary_link" priority="5" numLanes="1" speed="22.22" disallow="tram rail_urban rail rail_electric rail_fast ship container cable_car subway aircraft wheelchair scooter drone" oneway="0" />

    <edge id=":11364145943_0" function="internal">
        <lane id=":11364145943_0_0" index="0" speed="11.00" length="13.64" width="5.00" shape="1809.53,1509.78 1818.95,1519.59" />
        <lane id=":11364145943_0_1" index="1" speed="11.00" length="13.64" width="5.00" shape="1805.91,1513.23 1815.36,1523.07" />
        <lane id=":11364145943_0_2" index="2" speed="11.00" length="13.64" width="5.00" shape="1802.30,1516.69 1811.78,1526.56" />
    </edge>
    <edge id=":11364145943_3" function="internal">
        <lane id=":11364145943_3_0" index="0" speed="11.00" length="10.73" width="5.00" shape="1802.30,1526.01 1804.68,1524.43 1807.05,1524.00 1809.42,1524.71 1811.78,1526.56" />
    </edge>
    <edge id=":12181658670_0" function="internal">
        <lane id=":12181658670_0_0" index="0" speed="11.00" length="6.80" width="6.00" shape="1071.01,1088.97 1075.23,1083.41" />
        <lane id=":12181658670_0_1" index="1" speed="11.00" length="6.80" width="6.00" shape="1074.80,1092.24 1079.52,1087.61" />
    </edge>
    <edge id=":12181658674_0" function="internal">
        <lane id=":12181658674_0_0" index="0" disallow="tram rail_urban rail rail_electric rail_fast ship container cable_car subway aircraft wheelchair scooter drone" speed="11.00" length="5.21" width="6.00" shape="1057.72,1075.83 1057.73,1074.27 1057.67,1073.13 1057.89,1072.11 1058.71,1070.90" />
    </edge>
    <edge id=":12609707203_0" function="internal">
        <lane id=":12609707203_0_0" index="0" disallow="tram rail_urban rail rail_electric rail_fast ship container cable_car subway aircraft wheelchair scooter drone" speed="11.00" length="0.40" shape="2141.24,1911.67 2141.19,1911.58" />
        <lane id=":12609707203_0_1" index="1" disallow="tram rail_urban rail rail_electric rail_fast ship container cable_car subway aircraft wheelchair scooter drone" speed="11.00" length="0.40" shape="2144.09,1910.22 2143.95,1909.96" />
        <lane id=":12609707203_0_2" index="2" disallow="tram rail_urban rail rail_electric rail_fast ship container cable_car subway aircraft wheelchair scooter drone" speed="11.00" length="0.40" shape="2146.95,1908.77 2146.71,1908.33" />
        <lane id=":12609707203_0_3" index="3" disallow="tram rail_urban rail rail_electric rail_fast ship container cable_car subway aircraft wheelchair scooter drone" speed="11.00" length="0.40" shape="2149.80,1907.32 2149.46,1906.71" />
    </edge>
    <edge id=":13864848960_0" function="internal">
        <lane id=":13864848960_0_0" index="0" disallow="tram rail_urban rail rail_electric rail_fast ship container cable_car subway aircraft wheelchair scooter drone" speed="11.00" length="0.30" shape="2242.89,1982.29 2242.68,1982.07" />
        <lane id=":13864848960_0_1" index="1" disallow="tram rail_urban rail rail_electric rail_fast ship container cable_car subway aircraft wheelchair scooter drone" speed="11.00" length="0.30" shape="2245.22,1980.09 2245.01,1979.87" />
    </edge>
    <edge id=":13864848961_0" function="internal">
        <lane id=":13864848961_0_0" index="0" disallow="tram rail_urban rail rail_electric rail_fast ship container cable_car subway aircraft wheelchair scooter drone" speed="11.00" length="4.24" shape="2261.18,2015.26 2261.58,2011.33" />
        <lane id=":13864848961_0_1" index="1" disallow="tram rail_urban rail rail_electric rail_fast ship container cable_car subway aircraft wheelchair scooter drone" speed="11.00" length="4.24" shape="2263.48,2013.04 2263.56,2008.81" />
        <lane id=":13864848961_0_2" index="2" disallow="tram rail_urban rail rail_electric rail_fast ship container cable_car subway aircraft wheelchair scooter drone" speed="11.00" length="4.24" shape="2265.78,2010.82 2265.54,2006.30" />
    </edge>
    <edge id=":13864848961_3" function="internal">
        <lane id=":13864848961_3_0" index="0" disallow="tram rail_urban rail rail_electric rail_fast ship container cable_car subway aircraft wheelchair scooter drone" speed="11.00" length="28.49" shape="2268.08,2008.60 2248.33,1988.07" />
        <lane id=":13864848961_3_1" index="1" disallow="tram rail_urban rail rail_electric rail_fast ship container cable_car subway aircraft wheelchair scooter drone" speed="11.00" length="27.46" shape="2270.39,2006.38 2251.34,1986.60" />
    </edge>
    <edge id=":13864848977_0" function="internal">
        <lane id=":13864848977_0_0" index="0" disallow="tram rail_urban rail rail_electric rail_fast ship container cable_car subway aircraft wheelchair scooter drone" speed="11.00" length="14.94" width="5.00" shape="2238.83,1935.75 2241.14,1939.76 2243.66,1942.26 2246.38,1944.07 2249.27,1946.02" />
    </edge>
    <edge id=":13864848977_1" function="internal">
        <lane id=":13864848977_1_0" index="0" disallow="tram rail_urban rail rail_electric rail_fast ship container cable_car subway aircraft wheelchair scooter drone" speed="11.00" length="16.75" shape="2238.83,1935.75 2240.81,1940.14 2242.35,1943.06 2244.09,1945.87 2246.70,1949.93" />
        <lane id=":13864848977_1_1" index="1" disallow="tram rail_urban rail rail_electric rail_fast ship container cable_car subway aircraft wheelchair scooter drone" speed="11.00" length="16.75" shape="2235.89,1937.02 2237.91,1941.48 2239.46,1944.45 2241.22,1947.31 2243.86,1951.44" />
        <lane id=":13864848977_1_2" index="2" disallow="tram rail_urban rail rail_electric rail_fast ship container cable_car subway aircraft wheelchair scooter drone" speed="11.00" length="16.75" shape="2232.96,1938.30 2235.00,1942.83 2236.57,1945.85 2238.35,1948.76 2241.03,1952.95" />
        <lane id=":13864848977_1_3" index="3" disallow="tram rail_urban rail rail_electric rail_fast ship container cable_car subway aircraft wheelchair scooter drone" speed="11.00" length="16.75" shape="2230.03,1939.58 2232.09,1944.18 2233.68,1947.25 2235.48,1950.20 2238.20,1954.46" />
        <lane id=":13864848977_1_4" index="4" disallow="tram rail_urban rail rail_electric rail_fast ship container cable_car subway aircraft wheelchair scooter drone" speed="11.00" length="16.75" shape="2227.09,1940.85 2229.19,1945.52 2230.79,1948.64 2232.61,1951.64 2235.36,1955.96" />
    </edge>
    <edge id=":13864848984_0" function="internal">
        <lane id=":13864848984_0_0" index="0" disallow="tram rail_urban rail rail_electric rail_fast ship container cable_car subway aircraft wheelchair scooter drone" speed="11.00" length="0.65" shape="2194.16,1893.25 2194.49,1893.31 2194.72,1893.36 2194.94,1893.42 2195.26,1893.52" />
        <lane id=":13864848984_0_1" index="1" disallow="tram rail_urban rail rail_electric rail_fast ship container cable_car subway aircraft wheelchair scooter drone" speed="11.00" length="0.65" shape="2193.55,1896.39 2193.78,1896.43 2193.94,1896.47 2194.10,1896.51 2194.34,1896.58" />
        <lane id=":13864848984_0_2" index="2" disallow="tram rail_urban rail rail_electric rail_fast ship container cable_car subway aircraft wheelchair scooter drone" speed="11.00" length="0.65" shape="2192.93,1899.53 2193.08,1899.56 2193.17,1899.58 2193.27,1899.60 2193.41,1899.65" />
        <lane id=":13864848984_0_3" index="3" disallow="tram rail_urban rail rail_electric rail_fast ship container cable_car subway aircraft wheelchair scooter drone" speed="11.00" length="0.65" shape="2192.32,1902.67 2192.37,1902.68 2192.40,1902.69 2192.43,1902.69 2192.48,1902.71" />
    </edge>
    <edge id=":13864848996_0" function="internal">
        <lane id=":13864848996_0_0" index="0" disallow="tram rail_urban rail rail_electric rail_fast ship container cable_car subway aircraft wheelchair scooter drone" speed="11.00" length="10.04" width="5.00" shape="2207.55,1965.98 2204.79,1964.91 2202.60,1965.05 2200.98,1966.41 2199.93,1968.98" />
    </edge>
    <edge id=":13864848996_1" function="internal">
        <lane id=":13864848996_1_0" index="0" disallow="tram rail_urban rail rail_electric rail_fast ship container cable_car subway aircraft wheelchair scooter drone" speed="11.00" length="18.39" shape="2207.55,1965.98 2202.89,1963.24 2199.76,1961.24 2196.52,1959.46 2191.57,1957.36" />
        <lane id=":13864848996_1_1" index="1" disallow="tram rail_urban rail rail_electric rail_fast ship container cable_car subway aircraft wheelchair scooter drone" speed="11.00" length="18.39" shape="2208.88,1963.06 2204.17,1960.29 2201.00,1958.29 2197.72,1956.49 2192.71,1954.37" />
        <lane id=":13864848996_1_2" index="2" disallow="tram rail_urban rail rail_electric rail_fast ship container cable_car subway aircraft wheelchair scooter drone" speed="11.00" length="18.39" shape="2210.21,1960.14 2205.45,1957.35 2202.24,1955.33 2198.93,1953.52 2193.86,1951.38" />
    </edge>
    <edge id=":13864848996_4" function="internal">
        <lane id=":13864848996_4_0" index="0" disallow="tram rail_urban rail rail_electric rail_fast ship container cable_car subway aircraft wheelchair scooter drone" speed="11.00" length="9.75" shape="2195.07,1967.81 2195.25,1965.39 2194.53,1963.34 2192.92,1961.66 2190.42,1960.35" />
        <lane id=":13864848996_4_1" index="1" disallow="tram rail_urban rail rail_electric rail_fast ship container cable_car subway aircraft wheelchair scooter drone" speed="11.00" length="12.15" shape="2195.07,1967.81 2195.60,1964.03 2195.19,1961.03 2193.85,1958.80 2191.57,1957.36" />
    </edge>
    <edge id=":2036141666_0" function="internal">
        <lane id=":2036141666_0_0" index="0" speed="11.00" length="9.68" width="4.00" shape="1049.90,1137.15 1047.61,1136.18 1045.37,1136.05 1043.17,1136.76 1041.02,1138.30" />
    </edge>
    <edge id=":2036141666_1" function="internal">
        <lane id=":2036141666_1_0" index="0" speed="11.00" length="12.45" width="4.00" shape="1050.04,1129.85 1041.02,1138.30" />
        <lane id=":2036141666_1_1" index="1" speed="11.00" length="12.45" width="4.00" shape="1047.91,1127.46 1038.31,1135.35" />
        <lane id=":2036141666_1_2" index="2" speed="11.00" length="12.45" width="4.00" shape="1045.78,1125.07 1042.87,1127.38 1040.67,1128.71 1038.48,1130.06 1035.60,1132.41" />
    </edge>
    <edge id=":2036141676_0" function="internal">
        <lane id=":2036141676_0_0" index="0" speed="11.00" length="15.49" width="6.00" shape="1018.50,1128.06 1022.30,1124.26 1024.97,1120.89 1026.52,1117.97 1026.95,1115.50" />
    </edge>
    <edge id=":2036141676_1" function="internal">
        <lane id=":2036141676_1_0" index="0" speed="11.00" length="18.02" shape="1021.21,1131.00 1024.87,1127.13 1026.96,1124.09 1029.00,1121.01 1032.53,1117.00" />
        <lane id=":2036141676_1_1" index="1" speed="11.00" length="18.02" shape="1021.21,1131.00 1034.79,1119.27" />
        <lane id=":2036141676_1_2" index="2" speed="11.00" length="18.02" shape="1023.93,1133.94 1037.05,1121.54" />
    </edge>
    <edge id=":2036141706_0" function="internal">
        <lane id=":2036141706_0_0" index="0" disallow="tram rail_urban rail rail_electric rail_fast ship container cable_car subway aircraft wheelchair scooter drone" speed="11.00" length="40.27" width="6.00" shape="1132.91,1188.15 1123.72,1180.70 1113.58,1174.40 1104.63,1169.59 1099.03,1166.62" />
    </edge>
    <edge id=":2036141706_1" function="internal">
        <lane id=":2036141706_1_0" index="0" disallow="tram rail_urban rail rail_electric rail_fast ship container cable_car subway aircraft wheelchair scooter drone" speed="11.00" length="41.21" width="5.00" shape="1132.91,1188.15 1104.06,1159.14" />
        <lane id=":2036141706_1_1" index="1" disallow="tram rail_urban rail rail_electric rail_fast ship container cable_car subway aircraft wheelchair scooter drone" speed="11.00" length="41.21" width="5.00" shape="1137.13,1183.89 1107.37,1155.39" />
        <lane id=":2036141706_1_2" index="2" disallow="tram rail_urban rail rail_electric rail_fast ship container cable_car subway aircraft wheelchair scooter drone" speed="11.00" length="41.21" width="5.00" shape="1141.35,1179.62 1110.67,1151.64" />
    </edge>
    <edge id=":2036141724_0" function="internal">
        <lane id=":2036141724_0_0" index="0" disallow="tram rail_urban rail rail_electric rail_fast ship container cable_car subway aircraft wheelchair scooter drone" speed="11.00" length="14.33" width="6.00" shape="1116.52,992.47 1118.79,994.13 1121.74,994.51 1125.35,993.61 1129.65,991.43" />
    </edge>
    <edge id=":2036141724_1" function="internal">
        <lane id=":2036141724_1_0" index="0" disallow="tram rail_urban rail rail_electric rail_fast ship container cable_car subway aircraft wheelchair scooter drone" speed="11.00" length="12.74" width="6.00" shape="1113.80,1007.79 1115.17,1005.38 1115.31,1002.66 1114.23,999.65 1111.92,996.33" />
    </edge>
    <edge id=":2036141724_2" function="internal">
        <lane id=":2036141724_2_0" index="0" disallow="tram rail_urban rail rail_electric rail_fast ship container cable_car subway aircraft wheelchair scooter drone" speed="11.00" length="22.82" width="6.00" shape="1113.80,1007.79 1117.06,1004.01 1121.36,999.17 1125.83,994.55 1129.65,991.43" />
    </edge>
    <edge id=":2231192590_0" function="internal">
        <lane id=":2231192590_0_0" index="0" speed="11.00" length="21.08" width="5.00" shape="1719.98,1416.20 1734.62,1431.40" />
        <lane id=":2231192590_0_1" index="1" speed="11.00" length="21.08" width="5.00" shape="1716.38,1419.67 1731.00,1434.86" />
        <lane id=":2231192590_0_2" index="2" speed="11.00" length="21.08" width="5.00" shape="1712.79,1423.15 1727.39,1438.31" />
    </edge>
    <edge id=":2231192590_3" function="internal">
        <lane id=":2231192590_3_0" index="0" speed="11.00" length="21.04" width="5.00" shape="1712.82,1429.22 1716.61,1427.33 1720.91,1427.64 1725.70,1430.15 1731.00,1434.86" />
        <lane id=":2231192590_3_1" index="1" speed="11.00" length="12.61" width="5.00" shape="1716.70,1433.80 1718.69,1432.97 1721.13,1433.44 1724.03,1435.22 1727.39,1438.31" />
    </edge>
    <edge id=":2300361544_0" function="internal">
        <lane id=":2300361544_0_0" index="0" disallow="tram rail_urban rail rail_electric rail_fast ship container cable_car subway aircraft wheelchair scooter drone" speed="11.00" length="13.18" width="6.00" shape="380.08,608.09 382.26,611.21 384.81,612.67 387.73,613.38 391.04,614.28" />
    </edge>
    <edge id=":2300361544_1" function="internal">
        <lane id=":2300361544_1_0" index="0" speed="11.00" length="11.51" width="6.00" shape="380.08,608.09 385.01,618.71" />
        <lane id=":2300361544_1_1" index="1" speed="11.00" length="11.51" width="6.00" shape="374.65,610.65 379.50,621.09" />
        <lane id=":2300361544_1_2" index="2" speed="11.00" length="11.51" width="6.00" shape="369.23,613.22 373.99,623.47" />
    </edge>
    <edge id=":3257247348_0" function="internal">
        <lane id=":3257247348_0_0" index="0" disallow="tram rail_urban rail rail_electric rail_fast ship container cable_car subway aircraft wheelchair scooter drone" speed="11.00" length="11.50" width="6.00" shape="622.51,297.89 620.42,300.26 619.67,302.71 620.24,305.22 622.14,307.80" />
    </edge>
    <edge id=":3257247348_1" function="internal">
        <lane id=":3257247348_1_0" index="0" disallow="tram rail_urban rail rail_electric rail_fast ship container cable_car subway aircraft wheelchair scooter drone" speed="11.00" length="29.14" shape="622.51,297.89 618.72,301.57 613.46,306.89 607.29,312.54 600.77,317.20" />
    </edge>
    <edge id=":3257247348_2" function="internal">
        <lane id=":3257247348_2_0" index="0" disallow="tram rail_urban rail rail_electric rail_fast ship container cable_car subway aircraft wheelchair scooter drone" speed="11.00" length="14.26" width="6.00" shape="605.84,291.73 609.29,294.25 612.56,295.36 615.67,295.05 618.62,293.32" />
    </edge>
    <edge id=":3257247348_3" function="internal">
        <lane id=":3257247348_3_0" index="0" speed="11.00" length="21.91" width="6.00" shape="601.79,296.15 617.63,311.77" />
        <lane id=":3257247348_3_1" index="1" speed="11.00" length="21.91" width="6.00" shape="597.74,300.58 613.11,315.74" />
    </edge>
    <edge id=":3257247348_5" function="internal">
        <lane id=":3257247348_5_0" index="0" speed="11.00" length="17.06" shape="597.74,300.58 601.52,304.83 603.02,308.55 602.24,311.75 599.18,314.42" />
    </edge>
    <edge id=":3257247348_6" function="internal">
        <lane id=":3257247348_6_0" index="0" disallow="tram rail_urban rail rail_electric rail_fast ship container cable_car subway aircraft wheelchair scooter drone" speed="11.00" length="27.48" width="6.00" shape="595.99,308.87 602.65,304.80 609.13,300.45 614.69,296.42 618.62,293.32" />
    </edge>
    <edge id=":3257247348_7" function="internal">
        <lane id=":3257247348_7_0" index="0" speed="11.00" length="17.39" width="6.00" shape="597.58,311.65 601.32,310.32 605.15,310.55 609.08,312.36 613.11,315.74" />
    </edge>
    <edge id=":3257259160_0" function="internal">
        <lane id=":3257259160_0_0" index="0" disallow="tram rail_urban rail rail_electric rail_fast ship container cable_car subway aircraft wheelchair scooter drone" speed="11.00" length="12.32" width="6.00" shape="747.15,202.91 744.57,200.94 741.88,200.24 739.08,200.80 736.18,202.63" />
    </edge>
    <edge id=":3257259160_1" function="internal">
        <lane id=":3257259160_1_0" index="0" disallow="tram rail_urban rail rail_electric rail_fast ship container cable_car subway aircraft wheelchair scooter drone" speed="11.00" length="20.51" width="6.00" shape="747.15,202.91 732.87,188.19" />
    </edge>
    <edge id=":3257259160_2" function="internal">
        <lane id=":3257259160_2_0" index="0" disallow="tram rail_urban rail rail_electric rail_fast ship container cable_car subway aircraft wheelchair scooter drone" speed="11.00" length="19.88" width="6.00" shape="747.15,202.91 744.78,198.77 744.06,193.65 744.96,188.56 747.48,184.51" />
    </edge>
    <edge id=":3257259160_3" function="internal">
        <lane id=":3257259160_3_0" index="0" disallow="tram rail_urban rail rail_electric rail_fast ship container cable_car subway aircraft wheelchair scooter drone" speed="11.00" length="11.30" width="6.00" shape="751.64,188.84 749.73,191.28 749.06,193.74 749.64,196.22 751.46,198.73" />
    </edge>
    <edge id=":3257259160_4" function="internal">
        <lane id=":3257259160_4_0" index="0" disallow="tram rail_urban rail rail_electric rail_fast ship container cable_car subway aircraft wheelchair scooter drone" speed="11.00" length="20.72" width="6.00" shape="751.64,188.84 736.18,202.63" />
    </edge>
    <edge id=":3257259160_5" function="internal">
        <lane id=":3257259160_5_0" index="0" disallow="tram rail_urban rail rail_electric rail_fast ship container cable_car subway aircraft wheelchair scooter drone" speed="11.00" length="20.27" width="6.00" shape="751.64,188.84 747.41,191.20 742.19,191.82 737.00,190.79 732.87,188.19" />
    </edge>
    <edge id=":3257259160_6" function="internal">
        <lane id=":3257259160_6_0" index="0" disallow="tram rail_urban rail rail_electric rail_fast ship container cable_car subway aircraft wheelchair scooter drone" speed="11.00" length="11.75" width="6.00" shape="737.17,184.01 739.78,186.06 742.36,186.82 744.93,186.31 747.48,184.51" />
    </edge>
    <edge id=":3257259160_7" function="internal">
        <lane id=":3257259160_7_0" index="0" disallow="tram rail_urban rail rail_electric rail_fast ship container cable_car subway aircraft wheelchair scooter drone" speed="11.00" length="20.51" width="6.00" shape="737.17,184.01 751.46,198.73" />
    </edge>
    <edge id=":3257259160_8" function="internal">
        <lane id=":3257259160_8_0" index="0" disallow="tram rail_urban rail rail_electric rail_fast ship container cable_car subway aircraft wheelchair scooter drone" speed="11.00" length="20.26" width="6.00" shape="737.17,184.01 739.52,188.24 740.09,193.50 738.96,198.67 736.18,202.63" />
    </edge>
    <edge id=":3257259160_9" function="internal">
        <lane id=":3257259160_9_0" index="0" disallow="tram rail_urban rail rail_electric rail_fast ship container cable_car subway aircraft wheelchair scooter drone" speed="11.00" length="11.43" width="6.00" shape="732.34,198.01 734.46,195.66 735.26,193.24 734.73,190.75 732.87,188.19" />
    </edge>
    <edge id=":3257259160_10" function="internal">
        <lane id=":3257259160_10_0" index="0" disallow="tram rail_urban rail rail_electric rail_fast ship container cable_car subway aircraft wheelchair scooter drone" speed="11.00" length="20.29" width="6.00" shape="732.34,198.01 747.48,184.51" />
    </edge>
    <edge id=":3257259160_11" function="internal">
        <lane id=":3257259160_11_0" index="0" disallow="tram rail_urban rail rail_electric rail_fast ship container cable_car subway aircraft wheelchair scooter drone" speed="11.00" length="20.54" width="6.00" shape="732.34,198.01 736.77,195.76 742.07,195.13 747.29,196.12 751.46,198.73" />
    </edge>
    <edge id=":4035870191_0" function="internal">
        <lane id=":4035870191_0_0" index="0" disallow="tram rail_urban rail rail_electric rail_fast ship container cable_car subway aircraft wheelchair scooter drone" speed="11.00" length="12.45" width="6.00" shape="695.86,150.06 693.43,148.29 690.75,147.72 687.81,148.36 684.62,150.21" />
    </edge>
    <edge id=":4035870191_1" function="internal">
        <lane id=":4035870191_1_0" index="0" disallow="tram rail_urban rail rail_electric rail_fast ship container cable_car subway aircraft wheelchair scooter drone" speed="11.00" length="20.10" width="6.00" shape="695.86,150.06 681.87,135.64" />
    </edge>
    <edge id=":4035870191_2" function="internal">
        <lane id=":4035870191_2_0" index="0" disallow="tram rail_urban rail rail_electric rail_fast ship container cable_car subway aircraft wheelchair scooter drone" speed="11.00" length="20.10" width="6.00" shape="686.17,131.46 700.17,145.88" />
    </edge>
    <edge id=":4035870191_3" function="internal">
        <lane id=":4035870191_3_0" index="0" disallow="tram rail_urban rail rail_electric rail_fast ship container cable_car subway aircraft wheelchair scooter drone" speed="11.00" length="20.53" width="6.00" shape="686.17,131.46 688.48,135.76 688.93,141.12 687.60,146.34 684.62,150.21" />
    </edge>
    <edge id=":4035870191_4" function="internal">
        <lane id=":4035870191_4_0" index="0" disallow="tram rail_urban rail rail_electric rail_fast ship container cable_car subway aircraft wheelchair scooter drone" speed="11.00" length="11.53" width="6.00" shape="681.07,145.39 683.36,143.12 684.25,140.74 683.76,138.25 681.87,135.64" />
    </edge>
    <edge id=":4035870191_5" function="internal">
        <lane id=":4035870191_5_0" index="0" disallow="tram rail_urban rail rail_electric rail_fast ship container cable_car subway aircraft wheelchair scooter drone" speed="11.00" length="20.35" width="6.00" shape="681.07,145.39 685.63,143.27 690.99,142.62 696.16,143.48 700.17,145.88" />
    </edge>
    <edge id=":4066381582_0" function="internal">
        <lane id=":4066381582_0_0" index="0" disallow="tram rail_urban rail rail_electric rail_fast ship container cable_car subway aircraft wheelchair scooter drone" speed="11.00" length="12.06" shape="2145.74,1853.26 2146.42,1856.70 2143.38,1859.76 2140.24,1862.89 2140.67,1866.57" />
        <lane id=":4066381582_0_1" index="1" disallow="tram rail_urban rail rail_electric rail_fast ship container cable_car subway aircraft wheelchair scooter drone" speed="11.00" length="12.06" shape="2142.19,1856.78 2138.21,1868.62" />
        <lane id=":4066381582_0_2" index="2" disallow="tram rail_urban rail rail_electric rail_fast ship container cable_car subway aircraft wheelchair scooter drone" speed="11.00" length="12.06" shape="2138.65,1860.31 2135.75,1870.66" />
        <lane id=":4066381582_0_3" index="3" disallow="tram rail_urban rail rail_electric rail_fast ship container cable_car subway aircraft wheelchair scooter drone" speed="11.00" length="12.06" shape="2135.10,1863.83 2133.29,1872.71" />
    </edge>
    <edge id=":4066381583_0" function="internal">
        <lane id=":4066381583_0_0" index="0" disallow="tram rail_urban rail rail_electric rail_fast ship container cable_car subway aircraft wheelchair scooter drone" speed="11.00" length="11.09" width="5.00" shape="2120.61,1883.92 2107.88,1888.58" />
        <lane id=":4066381583_0_1" index="1" disallow="tram rail_urban rail rail_electric rail_fast ship container cable_car subway aircraft wheelchair scooter drone" speed="11.00" length="11.09" width="5.00" shape="2123.03,1881.82 2111.69,1885.34" />
        <lane id=":4066381583_0_2" index="2" disallow="tram rail_urban rail rail_electric rail_fast ship container cable_car subway aircraft wheelchair scooter drone" speed="11.00" length="11.09" width="5.00" shape="2125.45,1879.73 2115.49,1882.09" />
        <lane id=":4066381583_0_3" index="3" disallow="tram rail_urban rail rail_electric rail_fast ship container cable_car subway aircraft wheelchair scooter drone" speed="11.00" length="11.09" width="5.00" shape="2127.87,1877.63 2119.29,1878.85" />
    </edge>
    <edge id=":411917821_0" function="internal">
        <lane id=":411917821_0_0" index="0" disallow="tram rail_urban rail rail_electric rail_fast ship container cable_car subway aircraft wheelchair scooter drone" speed="11.00" length="17.28" width="6.00" shape="976.53,1381.39 969.84,1366.51" />
        <lane id=":411917821_0_1" index="1" disallow="tram rail_urban rail rail_electric rail_fast ship container cable_car subway aircraft wheelchair scooter drone" speed="11.00" length="17.28" width="6.00" shape="976.53,1381.39 975.91,1377.84 976.56,1373.72 976.82,1368.98 975.04,1363.53" />
    </edge>
    <edge id=":411917821_2" function="internal">
        <lane id=":411917821_2_0" index="0" speed="11.00" length="11.92" width="6.00" shape="986.91,1368.51 983.95,1371.57 982.12,1374.25 981.40,1376.57 981.80,1378.52" />
    </edge>
    <edge id=":411917821_3" function="internal">
        <lane id=":411917821_3_0" index="0" disallow="tram rail_urban rail rail_electric rail_fast ship container cable_car subway aircraft wheelchair scooter drone" speed="11.00" length="17.86" width="6.00" shape="984.74,1366.16 980.10,1369.60 976.07,1370.80 972.65,1369.77 969.84,1366.51" />
        <lane id=":411917821_3_1" index="1" disallow="tram rail_urban rail rail_electric rail_fast ship container cable_car subway aircraft wheelchair scooter drone" speed="11.00" length="9.08" width="6.00" shape="982.58,1363.81 980.30,1365.45 978.28,1365.96 976.53,1365.32 975.04,1363.53" />
    </edge>
    <edge id=":411917832_0" function="internal">
        <lane id=":411917832_0_0" index="0" disallow="tram rail_urban rail rail_electric rail_fast ship container cable_car subway aircraft wheelchair scooter drone" speed="11.00" length="11.96" width="6.00" shape="775.64,372.53 778.37,374.63 781.05,375.47 783.66,375.04 786.21,373.34" />
    </edge>
    <edge id=":411917832_1" function="internal">
        <lane id=":411917832_1_0" index="0" disallow="tram rail_urban rail rail_electric rail_fast ship container cable_car subway aircraft wheelchair scooter drone" speed="11.00" length="11.46" width="6.00" shape="770.99,386.61 773.13,384.24 773.91,381.82 773.34,379.34 771.42,376.80" />
    </edge>
    <edge id=":411917832_2" function="internal">
        <lane id=":411917832_2_0" index="0" speed="11.00" length="20.35" width="6.00" shape="770.99,386.61 786.21,373.34" />
        <lane id=":411917832_2_1" index="1" speed="11.00" length="20.35" width="6.00" shape="774.82,391.22 790.28,377.75" />
    </edge>
    <edge id=":411917856_0" function="internal">
        <lane id=":411917856_0_0" index="0" speed="11.00" length="4.67" shape="54.81,628.96 53.37,628.88 52.62,628.39 52.56,627.49 53.19,626.20" />
    </edge>
    <edge id=":411917924_0" function="internal">
        <lane id=":411917924_0_0" index="0" speed="11.00" length="14.04" width="5.00" shape="1619.73,1700.62 1610.06,1690.42" />
        <lane id=":411917924_0_1" index="1" speed="11.00" length="14.04" width="5.00" shape="1623.35,1697.17 1613.69,1686.98" />